[TITLE]
Neo4jNetwork


[JUNCTIONS]
;id elevation demand demandpattern
7 0.0 0.0 
 8 0.0 0.0 
 9 0.0 0.0 
 98234 0.0 0.0 
 10 0.0 1.0 P10 
 42481 0.0 0.0 
 11 0.0 1.0 P11 
 26656 0.0 0.0 
 12 0.0 1.0 P12 
 26133 0.0 0.0 
 13 0.0 1.0 P13 
 44290 0.0 0.0 
 14 0.0 1.0 P14 
 26202 0.0 0.0 
 15 0.0 1.0 P15 
 73398 0.0 0.0 
 16 0.0 1.0 P16 
 62509 0.0 0.0 
 17 0.0 1.0 P17 
 80347 0.0 0.0 
 18 0.0 1.0 P18 
 76400 0.0 0.0 
 19 0.0 1.0 P19 
 73566 0.0 0.0 
 20 0.0 1.0 P20 
 84661 0.0 0.0 
 21 0.0 1.0 P21 
 75776 0.0 0.0 
 22 0.0 1.0 P22 
 1 0.0 0.0 
 2 0.0 0.0 
 3 0.0 0.0 
 4 0.0 0.0 
 5 0.0 0.0 
 6 0.0 0.0 
 
 [RESERVOIRS]
;id head pattern
25 50 
 26 50 
 
 [TANKS]
;id elevation initlevel minlevel maxlevel diameter minvolume volumecurve
23 0 10 0 20 50 0.0 
 24 0 10 0 20 50 0.0 
 
 [PIPES]
;id startnode endnode length diameter roughness minorloss
251 25 1 10.0 98.0 0.4 0.0 
 12 1 2 10.0 98.0 0.4 0.0 
 982342 98234 2 10.0 98.0 0.4 0.0 
 9823442481 98234 42481 10.0 98.0 0.4 0.0 
 424813 42481 3 10.0 98.0 0.4 0.0 
 266563 26656 3 10.0 98.0 0.4 0.0 
 2665626133 26656 26133 10.0 98.0 0.4 0.0 
 261334 26133 4 10.0 98.0 0.4 0.0 
 442904 44290 4 10.0 98.0 0.4 0.0 
 4429026202 44290 26202 10.0 98.0 0.4 0.0 
 265 26 5 10.0 98.0 0.4 0.0 
 733985 73398 5 10.0 98.0 0.4 0.0 
 7339862509 73398 62509 10.0 98.0 0.4 0.0 
 625096 62509 6 10.0 98.0 0.4 0.0 
 803476 80347 6 10.0 98.0 0.4 0.0 
 8034776400 80347 76400 10.0 98.0 0.4 0.0 
 764002 76400 2 10.0 98.0 0.4 0.0 
 4429023 44290 23 10.0 98.0 0.4 0.0 
 924 9 24 10.0 98.0 0.4 0.0 
 73 7 3 10.0 98.0 0.4 0.0 
 78 7 8 10.0 98.0 0.4 0.0 
 873566 8 73566 10.0 98.0 0.4 0.0 
 7356684661 73566 84661 10.0 98.0 0.4 0.0 
 984661 9 84661 10.0 98.0 0.4 0.0 
 757765 75776 5 10.0 98.0 0.4 0.0 
 875776 8 75776 10.0 98.0 0.4 0.0 
 9823410 98234 10 10.0 98.0 100.0 0.0 
 4248111 42481 11 10.0 100.0 100.0 0.0 
 2665612 26656 12 10.0 102.0 100.0 0.0 
 2613313 26133 13 10.0 95.0 100.0 0.0 
 4429014 44290 14 10.0 110.0 100.0 0.0 
 2620215 26202 15 10.0 90.0 100.0 0.0 
 7339816 73398 16 10.0 105.0 100.0 0.0 
 6250917 62509 17 10.0 100.0 100.0 0.0 
 8034718 80347 18 10.0 92.0 100.0 0.0 
 7640019 76400 19 10.0 98.0 100.0 0.0 
 7356620 73566 20 10.0 101.0 100.0 0.0 
 8466121 84661 21 10.0 96.0 100.0 0.0 
 7577622 75776 22 10.0 103.0 100.0 0.0 
 
 [PUMPS]
;id startnode endnode keyword value

 [VALVES]
;id startnode endnode diameter valvetype setting minorloss

 [EMITTERS]
;id emittercoefficient


[OPTIONS]
UNITS CMH
HEADLOSS D-W
QUALITY NONE
VISCOSITY 1.0
DIFFUSIVITY 1.0
SPECIFIC GRAVITY 1.0
TRIALS 40
ACCURACY 0.001
UNBALANCED STOP
PATTERN 1.0
DEMAND MULTIPLIER 1.0
EMITTER EXPONENT 0.5
TOLERANCE 0.01

 [REPORT]
PAGESIZE 0
STATUS NO
SUMMARY YES
ENERGY NO
NODES ALL
LINKS ALL
ELEVATION NO
DEMAND YES
HEAD YES
PRESSURE YES
QUALITY YES
LENGTH NO
DIAMETER NO
FLOW YES
VELOCITY YES
HEADLOSS YES
SETTING NO
REACTION NO
F-FACTOR NO
ELEVATION PRECISION 2
DEMAND PRECISION 2
HEAD PRECISION 2
PRESSURE PRECISION 2
QUALITY PRECISION 2
LENGTH PRECISION 2
DIAMETER PRECISION 2
FLOW PRECISION 2
VELOCITY PRECISION 2
HEADLOSS PRECISION 2
SETTING PRECISION 2
REACTION PRECISION 2
F-FACTOR PRECISION 2

 [TIMES]
DURATION 24:00
HYDRAULIC TIMESTEP 1:00
QUALITY TIMESTEP 0:05
PATTERN TIMESTEP 2:00
PATTERN START 0:00
REPORT TIMESTEP 1:00
REPORT START 0:00
START CLOCKTIME 00:00 am
STATISTIC NONE

 [CONTROLS]

 [CURVES]
;id xvalue yvalue

 [DEMANDS]
;id demand pattern category

 [ENERGY]

 [PATTERNS]
;id multipliers
P10 1.6
P10 0.2
P10 0.6
P10 1.0
P10 1.0
P10 0.2

 P11 1.2
P11 0.3
P11 1.6
P11 1.0
P11 1.3
P11 0.4

 P12 2.0
P12 0.4
P12 0.2
P12 1.2
P12 1.0
P12 0.3

 P13 0.8
P13 1.1
P13 1.4
P13 0.9
P13 1.2
P13 0.6

 P14 1.5
P14 0.5
P14 0.8
P14 1.3
P14 1.0
P14 0.4

 P15 0.9
P15 1.0
P15 1.1
P15 1.2
P15 0.8
P15 0.5

 P16 1.1
P16 0.4
P16 1.5
P16 1.0
P16 1.1
P16 0.3

 P17 1.3
P17 0.2
P17 0.9
P17 1.4
P17 1.2
P17 0.5

 P18 0.7
P18 1.2
P18 1.3
P18 1.0
P18 0.9
P18 0.6

 P19 1.8
P19 0.3
P19 0.5
P19 1.2
P19 1.1
P19 0.4

 P20 1.0
P20 0.5
P20 1.2
P20 1.3
P20 0.9
P20 0.7

 P21 0.8
P21 1.3
P21 1.0
P21 1.1
P21 1.4
P21 0.5

 P22 1.4
P22 0.4
P22 0.7
P22 1.5
P22 1.0
P22 0.3

 
 [RULES]

 [STATUS]
;id status/setting

 [MIXING]
;tankid mixingmodel compartmentvolume
23 MIXED 
 24 MIXED 
 
 [QUALITY]
;id initialquality

 [REACTIONS]
ORDER BULK 1.0
ORDER WALL 1.0
ORDER TANK 1.0
GLOBAL BULK 0.0
GLOBAL WALL 0.0

 [SOURCES]
;id sourcetype strength sourcepattern

 [BACKDROP]

 [COORDINATES]
;nodeid xcoordinate ycoordinate
7 2245.1010090055543 2650.4360509044873
8 1868.467270420641 2463.5646741068294
9 719.7201945074241 2650.5661285178976
98234 3271.9338006799335 2215.736644844808
10 3632.951024287876 2363.1312961737553
42481 2980.1390593521082 2519.179972233331
11 3274.5547778870373 2709.5439216322416
26656 2714.0000546486353 3202.8945814786935
12 3038.98545024373 3239.4575286051277
26133 2818.172756048623 3603.6211512656805
13 3204.4710723301023 3669.4978631336194
44290 2963.57859067201 4356.326005475035
14 3152.180685484106 4660.6884291212755
26202 2704.436587092841 4651.835435902256
15 2601.6353760272223 5000.0
73398 1981.6307889776078 1275.2870519265327
16 1715.147180670096 982.9402201771101
62509 2304.1626204006247 1036.994090017218
17 2229.0833953980427 652.316000453097
80347 3067.923687330276 1141.8789797562579
18 3230.4225506820803 785.7867110715528
76400 3327.2831841288175 1449.2376221557618
19 3641.9458367640345 1222.6733465292177
73566 1498.4934716272521 2659.0368481889536
20 1454.7105894945241 3001.6420580269532
84661 1092.9202648335465 2734.3186013199747
21 910.5692461758811 3074.493209478634
75776 1796.8019587614865 2051.6680691888205
22 1440.4712532314632 1997.3079099452589
1 3839.837787672248 1818.5487576800053
2 3432.226661922622 1840.1809367144406
3 2641.332171825393 2784.9742205721404
4 2824.9411086516575 3989.6753284683728
5 1806.2254822027096 1638.0539522526324
6 2691.810262836029 1042.4947661403207
23 3363.338833795341 4433.883128385471
24 358.6095840188186 2688.416367577178
25 4213.02459438092 1771.0425792380358
26 1446.7597755306845 1470.6695613410236

 [LABELS]
;xcoordinate ycoordinate label anchornode

 [TAGS]

 [VERTICES]
;linkkid xcoordinate ycoordinate

 