[TITLE]


[JUNCTIONS]
;id elevation demand demandpattern
2 0 0 
 4 0 150 
 6 0 200 
 
 [RESERVOIRS]
;id head pattern
1 700 
 
 [TANKS]
;id elevation initlevel minlevel maxlevel diameter minvolume volumecurve
7 0 4 0 20 60  