[TITLE]
test2


[JUNCTIONS]
;id elevation demand demandpattern
2 None None 
 3 None None 
 4 None 300 
 5 None None 
 6 None None 
 7 None None 
 8 None 100 
 
 [RESERVOIRS]
;id head pattern
1 700 
 
 [TANKS]
;id elevation initlevel minlevel maxlevel diameter minvolume volumecurve

 [PIPES]
;id startnode endnode length diameter roughness minorloss
12 1 2 None None None None 
 23 2 3 None None None None 
 25 2 5 None None None None 
 34 3 4 None None None None 
 45 4 5 None None None None 
 56 5 6 None None None None 
 67 6 7 None None None None 
 78 7 8 None None None None 
 
 [PUMPS]
;id startnode endnode keyword value

 [VALVES]
;id startnode endnode diameter valvetype setting minorloss

 [EMITTERS]
;id emittercoefficient


[OPTIONS]
UNITS LPS
HEADLOSS H-W
QUALITY NONE
VISCOSITY 1.0
DIFFUSIVITY 1.0
SPECIFIC GRAVITY 1.0
TRIALS 200
ACCURACY 0.001
UNBALANCED STOP
PATTERN 1.0
DEMAND MULTIPLIER 1.0
EMITTER EXPONENT 0.5
TOLERANCE 0.01

 [REPORT]
PAGESIZE 0
STATUS NO
SUMMARY YES
ENERGY NO
NODES ALL
LINKS ALL
ELEVATION NO
DEMAND YES
HEAD YES
PRESSURE YES
QUALITY YES
LENGTH NO
DIAMETER NO
FLOW YES
VELOCITY YES
HEADLOSS YES
SETTING NO
REACTION NO
F-FACTOR NO
ELEVATION PRECISION 2
DEMAND PRECISION 2
HEAD PRECISION 2
PRESSURE PRECISION 2
QUALITY PRECISION 2
LENGTH PRECISION 2
DIAMETER PRECISION 2
FLOW PRECISION 2
VELOCITY PRECISION 2
HEADLOSS PRECISION 2
SETTING PRECISION 2
REACTION PRECISION 2
F-FACTOR PRECISION 2

 [TIMES]
DURATION 0:00
HYDRAULIC TIMESTEP 1:00
PATTERN START 0:00
REPORT TIMESTEP 1:00
REPORT START 0:00
START CLOCKTIME 00:00 am
STATISTIC NONE

 [CONTROLS]

 [CURVES]
;id xvalue yvalue

 [DEMANDS]
;id demand pattern category

 [ENERGY]

 [PATTERNS]
;id multipliers

 [RULES]

 [STATUS]
;id status/setting

 [MIXING]
;tankid mixingmodel compartmentvolume

 [QUALITY]
;id initialquality

 [REACTIONS]
ORDER BULK 1.0
ORDER WALL 1.0
ORDER TANK 1.0
GLOBAL BULK 0.0
GLOBAL WALL 0.0

 [SOURCES]
;id sourcetype strength sourcepattern

 [BACKDROP]

 [COORDINATES]
;nodeid xcoordinate ycoordinate
2 4267.766941988401 4267.766922121833
3 2499.9999565341686 4999.999980133432
4 732.2331896368711 4267.766922121833
5 0.00013162527290333514 2499.9998273891324
6 732.233040625263 732.2333187819107
7 2500.000095624837 0.00011175870451296532
8 4267.766643965186 732.2328717470866
1 5000.0 2500.000045946068

 [LABELS]
;xcoordinate ycoordinate label anchornode

 [TAGS]

 [VERTICES]
;linkkid xcoordinate ycoordinate

 