[TITLE]
TeswtSroda2


[JUNCTIONS]
;id elevation demand demandpattern
59960 0.0 0.0 
 8 0.0 1.0 P8 
 9 0.0 0.0 
 13144 0.0 0.0 
 10 0.0 1.0 P10 
 23855 0.0 0.0 
 11 0.0 1.0 P11 
 13 0.0 0.0 
 23284 0.0 0.0 
 14 0.0 1.0 P14 
 37370 0.0 0.0 
 15 0.0 1.0 P15 
 16 0.0 0.0 
 80162 0.0 0.0 
 17 0.0 1.0 P17 
 83160 0.0 0.0 
 18 0.0 1.0 P18 
 19 0.0 0.0 
 20 0.0 0.0 
 95082 0.0 0.0 
 21 0.0 1.0 P21 
 66817 0.0 0.0 
 22 0.0 1.0 P22 
 23 0.0 0.0 
 70002 0.0 0.0 
 24 0.0 1.0 P24 
 2 0.0 0.0 
 3 0.0 0.0 
 31285 0.0 0.0 
 4 0.0 1.0 P4 
 92723 0.0 0.0 
 5 0.0 1.0 P5 
 6 0.0 0.0 
 74765 0.0 0.0 
 7 0.0 1.0 P7 
 
 [RESERVOIRS]
;id head pattern
12 50 
 1 50 
 
 [TANKS]
;id elevation initlevel minlevel maxlevel diameter minvolume volumecurve
25 0 10 0 20 50 0.0 
 26 0 10 0 20 50 0.0 
 
 [PIPES]
;id startnode endnode length diameter roughness minorloss
12 1 2 10.0 98.0 0.4 0.0 
 23 2 3 10.0 98.0 0.4 0.0 
 331285 3 31285 10.0 98.0 0.4 0.0 
 3128592723 31285 92723 10.0 98.0 0.4 0.0 
 927236 92723 6 10.0 98.0 0.4 0.0 
 674765 6 74765 10.0 98.0 0.4 0.0 
 5996074765 59960 74765 10.0 98.0 0.4 0.0 
 599609 59960 9 10.0 98.0 0.4 0.0 
 913144 9 13144 10.0 98.0 0.4 0.0 
 1314423855 13144 23855 10.0 98.0 0.4 0.0 
 1213 12 13 10.0 98.0 0.4 0.0 
 1323284 13 23284 10.0 98.0 0.4 0.0 
 2328437370 23284 37370 10.0 98.0 0.4 0.0 
 3737016 37370 16 10.0 98.0 0.4 0.0 
 1680162 16 80162 10.0 98.0 0.4 0.0 
 8016283160 80162 83160 10.0 98.0 0.4 0.0 
 831603 83160 3 10.0 98.0 0.4 0.0 
 196 19 6 10.0 98.0 0.4 0.0 
 1920 19 20 10.0 98.0 0.4 0.0 
 2095082 20 95082 10.0 98.0 0.4 0.0 
 9508266817 95082 66817 10.0 98.0 0.4 0.0 
 6681723 66817 23 10.0 98.0 0.4 0.0 
 1370002 13 70002 10.0 98.0 0.4 0.0 
 2070002 20 70002 10.0 98.0 0.4 0.0 
 925 9 25 10.0 98.0 0.4 0.0 
 2326 23 26 10.0 98.0 0.4 0.0 
 312854 31285 4 10.0 98.0 100.0 0.0 
 927235 92723 5 10.0 100.0 100.0 0.0 
 747657 74765 7 10.0 102.0 100.0 0.0 
 599608 59960 8 10.0 95.0 100.0 0.0 
 1314410 13144 10 10.0 110.0 100.0 0.0 
 2385511 23855 11 10.0 90.0 100.0 0.0 
 2328414 23284 14 10.0 105.0 100.0 0.0 
 3737015 37370 15 10.0 100.0 100.0 0.0 
 8016217 80162 17 10.0 92.0 100.0 0.0 
 8316018 83160 18 10.0 98.0 100.0 0.0 
 9508221 95082 21 10.0 101.0 100.0 0.0 
 6681722 66817 22 10.0 96.0 100.0 0.0 
 7000224 70002 24 10.0 103.0 100.0 0.0 
 
 [PUMPS]
;id startnode endnode keyword value

 [VALVES]
;id startnode endnode diameter valvetype setting minorloss

 [EMITTERS]
;id emittercoefficient


[OPTIONS]
UNITS CMH
HEADLOSS D-W
QUALITY NONE
VISCOSITY 1.0
DIFFUSIVITY 1.0
SPECIFIC GRAVITY 1.0
TRIALS 40
ACCURACY 0.001
UNBALANCED STOP
PATTERN 1.0
DEMAND MULTIPLIER 1.0
EMITTER EXPONENT 0.5
TOLERANCE 0.01

 [REPORT]
PAGESIZE 0
STATUS NO
SUMMARY YES
ENERGY NO
NODES ALL
LINKS ALL
ELEVATION NO
DEMAND YES
HEAD YES
PRESSURE YES
QUALITY YES
LENGTH NO
DIAMETER NO
FLOW YES
VELOCITY YES
HEADLOSS YES
SETTING NO
REACTION NO
F-FACTOR NO
ELEVATION PRECISION 2
DEMAND PRECISION 2
HEAD PRECISION 2
PRESSURE PRECISION 2
QUALITY PRECISION 2
LENGTH PRECISION 2
DIAMETER PRECISION 2
FLOW PRECISION 2
VELOCITY PRECISION 2
HEADLOSS PRECISION 2
SETTING PRECISION 2
REACTION PRECISION 2
F-FACTOR PRECISION 2

 [TIMES]
DURATION 24:00
HYDRAULIC TIMESTEP 1:00
QUALITY TIMESTEP 0:05
PATTERN TIMESTEP 2:00
PATTERN START 0:00
REPORT TIMESTEP 1:00
REPORT START 0:00
START CLOCKTIME 00:00 am
STATISTIC NONE

 [CONTROLS]

 [CURVES]
;id xvalue yvalue

 [DEMANDS]
;id demand pattern category

 [ENERGY]

 [PATTERNS]
;id multipliers
P8 0.8
P8 1.1
P8 1.4
P8 0.9
P8 1.2
P8 0.6

 P10 1.5
P10 0.5
P10 0.8
P10 1.3
P10 1.0
P10 0.4

 P11 0.9
P11 1.0
P11 1.1
P11 1.2
P11 0.8
P11 0.5

 P14 1.1
P14 0.4
P14 1.5
P14 1.0
P14 1.1
P14 0.3

 P15 1.3
P15 0.2
P15 0.9
P15 1.4
P15 1.2
P15 0.5

 P17 0.7
P17 1.2
P17 1.3
P17 1.0
P17 0.9
P17 0.6

 P18 1.8
P18 0.3
P18 0.5
P18 1.2
P18 1.1
P18 0.4

 P21 1.0
P21 0.5
P21 1.2
P21 1.3
P21 0.9
P21 0.7

 P22 0.8
P22 1.3
P22 1.0
P22 1.1
P22 1.4
P22 0.5

 P24 1.4
P24 0.4
P24 0.7
P24 1.5
P24 1.0
P24 0.3

 P4 1.6
P4 0.2
P4 0.6
P4 1.0
P4 1.0
P4 0.2

 P5 1.2
P5 0.3
P5 1.6
P5 1.0
P5 1.3
P5 0.4

 P7 2.0
P7 0.4
P7 0.2
P7 1.2
P7 1.0
P7 0.3

 
 [RULES]

 [STATUS]
;id status/setting

 [MIXING]
;tankid mixingmodel compartmentvolume
25 MIXED 
 26 MIXED 
 
 [QUALITY]
;id initialquality

 [REACTIONS]
ORDER BULK 1.0
ORDER WALL 1.0
ORDER TANK 1.0
GLOBAL BULK 0.0
GLOBAL WALL 0.0

 [SOURCES]
;id sourcetype strength sourcepattern

 [BACKDROP]

 [COORDINATES]
;nodeid xcoordinate ycoordinate
59960 3712.634516432651 2560.9717868885245
8 3888.1222597152077 2190.718214647017
9 4114.942946163213 2635.5535892619405
13144 4463.461361347825 2824.892271533754
10 4819.8586244104035 2616.5197071904527
23855 4678.383525954412 3143.04377710244
11 5000.0 3328.3536670026624
13 1422.8825064960126 2873.1933573989954
23284 1128.1045730740034 2574.4452283752385
14 748.0415342422309 2733.475959719641
37370 1006.9593932497012 2174.7586505990553
15 603.3942035339682 2113.6368313151793
16 1148.1617427225262 1796.5358940093772
80162 1378.0456819168219 1462.926333514758
17 1086.0458219082273 1178.5481125335407
83160 1770.5299920963523 1316.726048491242
18 1658.9799562019464 928.6431172614775
19 2570.845985143193 2799.1748069112614
20 2254.536507242892 3101.9535521391736
95082 2314.888605855804 3533.493262037961
21 2634.4026688066933 3698.336933808297
66817 2244.809820457645 3957.4235919894863
22 2513.0826100726804 4256.756979892883
23 2030.6404403141332 4293.345503033216
70002 1825.4703002560782 3027.169353249584
24 1646.97403529466 3357.184823036199
2 2312.4280782987985 943.3239226998685
3 2190.6209788172687 1350.9283496302648
31285 2502.3332893712077 1640.0925492213025
4 2772.6562542472284 1336.432562437862
92723 2697.6748628022906 2033.1595455336183
5 2984.737765630195 1808.8796949251393
6 2842.377851875415 2458.4407187078914
74765 3279.0619636788033 2536.189767855815
7 3416.1471027232155 2231.7523443927885
25 4367.8658132202945 2294.8558391331876
26 1939.7758143037324 4660.455320662116
12 1132.6935828561122 3167.0151885172677
1 2397.4270292661568 560.6928433395211

 [LABELS]
;xcoordinate ycoordinate label anchornode

 [TAGS]

 [VERTICES]
;linkkid xcoordinate ycoordinate

 